    9
 HF-SCF000/6-311G*  ENERGY=-228.67275430
 O          0.0975451220        0.0000000000        0.0632111295
 C          0.1776325803        0.0000000000        1.4022686086
 C          1.4543702690        0.0000000000        1.8037164678
 C          2.2395684396        0.0000000000        0.5943132140
 C          1.3533011656        0.0000000000       -0.4085575786
 H          1.4559923521        0.0000000000       -1.4717326154
 H          3.3059054286        0.0000000000        0.5060176349
 H          1.8076585987        0.0000000000        2.8136956948
 H         -0.7517369560        0.0000000000        1.9287274445
