    9
FINAL HEAT OF FORMATION =  -228.455055
 O     0.097908    -0.000000     0.063468
 C     0.173537    -0.000000     1.399265
 C     1.456274    -0.000000     1.802612
 C     2.240238    -0.000000     0.593427
 C     1.349167     0.000000    -0.414068
 H     1.455565     0.000000    -1.484839
 H     3.315901    -0.000000     0.513141
 H     1.809766    -0.000000     2.820881
 H    -0.758119     0.000000     1.937773
