9
-0.35789473684210527
O 0.11429101673684211 0.0 0.07410186634210526
C 0.1776325803 0.0 1.3908768191263159
C 1.4377639532105264 0.0 1.8383964678
C 2.264488650126316 0.0 0.5650338455789474
C 1.3429043234947369 0.0 -0.403958631231579
H 1.397122246836842 0.0 -1.472147773294737
H 3.3196271128105264 0.0 0.3122892138473684
H 1.6361339671210526 0.0 2.9051199053263157
H -0.7760201138947369 0.0 1.8751398655526317
