9
-0.021052631578947323
O 0.09814912199999999 0.0 0.06227407686842106
C 0.17971931714210526 0.0 1.4019500822842106
C 1.455286269 0.0 1.8069855204315788
C 2.2362113869684213 0.0 0.5948096350526316
C 1.3527415866526316 0.0 -0.41058852596842105
H 1.4578119310473685 0.0 -1.4736039838210528
H 3.3023753233368422 0.0 0.5053532138473684
H 1.8096971250157894 0.0 2.816653379010526
H -0.7507596928421053 0.0 1.9263082866052632
