9
-0.10526315789473689
O 0.08280406936842105 0.0 0.053649024236842105
C 0.1864367908263158 0.0 1.3946643980736841
C 1.4614007953157895 0.0 1.8059385730631579
C 2.244494755389474 0.0 0.5998258455789474
C 1.3499453761263158 0.0 -0.3974017891263158
H 1.4735860363105264 0.0 -1.4581252469789474
H 3.3091780601789473 0.0 0.48941552963684204
H 1.7937933355421052 0.0 2.823412536905263
H -0.7321506402105263 0.0 1.9392948129210525
