9
-0.18947368421052624
O 0.10662470094736842 0.0 0.04880355055263159
C 0.16317952766842106 0.0 1.4157970296526317
C 1.4593401637368422 0.0 1.8054766783263156
C 2.2361977027578948 0.0 0.5901599508421053
C 1.347342218231579 0.0 -0.39030557860000004
H 1.5064037205210525 0.0 -1.4471825101368423
H 3.2952342707052633 0.0 0.4195892138473684
H 1.8907162829105264 0.0 2.7887041158526316
H -0.7945030612631578 0.0 1.8941011287105263
