9
-0.35789473684210527
O 0.10145691147368421 0.0 0.05718776107894737
C 0.16837026451052634 0.0 1.3798822928105263
C 1.4348757426842105 0.0 1.8151690993789473
C 2.2370703343368423 0.0 0.6167746876842105
C 1.377491270863158 0.0 -0.40921252596842106
H 1.2757959310473683 0.0 -1.4920681943473686
H 3.2913069022842105 0.0 0.3757833191105263
H 1.9326247039631579 0.0 2.7740516948
H -0.6598653770526316 0.0 2.085005760289474
