9
-0.35789473684210527
O 0.09729101673684211 0.0 0.0636012347631579
C 0.17318394872105264 0.0 1.4052892401789474
C 1.4467399532105263 0.0 1.7847337309578948
C 2.259907597494737 0.0 0.5935687929473684
C 1.3523634813894736 0.0 -0.4033108417578948
H 1.4635797205210526 0.0 -1.5411641943473686
H 3.0762479549157895 0.0 0.523314687531579
H 1.8857011250157896 0.0 3.031646431642105
H -0.690919903368421 0.0 1.8932636550263158
