9
-0.06315789473684208
O 0.09750027989473684 0.0 0.06327997160526316
C 0.17684752766842107 0.0 1.402801661231579
C 1.4530237426842105 0.0 1.800366573063158
C 2.243157702757895 0.0 0.5941818455789474
C 1.3531356919157895 0.0 -0.4076316838631579
H 1.457331299468421 0.0 -1.4839852469789474
H 3.265377639126316 0.0 0.5090700559526316
H 1.8214308092263158 0.0 2.852157589536842
H -0.7410045349473684 0.0 1.9224691287105262
