9
-0.1473684210526316
O 0.09756870094736841 0.0 0.06317281371052633
C 0.16964963293157895 0.0 1.4059380822842105
C 1.4561770058421053 0.0 1.806214362536842
C 2.2366299132842107 0.0 0.5936810034736842
C 1.3532053761263159 0.0 -0.3999335786
H 1.4644247731526316 0.0 -1.5652334575052633
H 3.3335149022842105 0.0 0.5045247927947368
H 1.7975299671210527 0.0 2.7871502211157893
H -0.6682836928421053 0.0 1.8821531287105264
