9
-0.31578947368421056
O 0.106605122 0.0 0.04915534002631579
C 0.20893363293157896 0.0 1.3974907138631578
C 1.468110269 0.0 1.852752257273684
C 2.189212650126316 0.0 0.6017595297894737
C 1.3449074813894737 0.0 -0.43902178912631584
H 1.4832860363105262 0.0 -1.4998031417157895
H 3.2529538496526316 0.0 0.49605131911052625
H 1.838236493436842 0.0 2.8580609579578944
H -0.7370780086315789 0.0 1.8924400760789473
