9
-0.021052631578947323
O 0.09754849042105262 0.0 0.06320565581578948
C 0.17649215924736844 0.0 1.4027928191263157
C 1.4546283742631578 0.0 1.804073309905263
C 2.239148650126316 0.0 0.5942228982105263
C 1.3532874813894737 0.0 -0.4073255786
H 1.4571969836789473 0.0 -1.4850898785578948
H 3.3098496391263157 0.0 0.5058043717421052
H 1.806211651331579 0.0 2.809903484273684
H -0.7398150612631579 0.0 1.9220739708157895
