9
-0.2736842105263158
O 0.0975889114736842 0.0 0.06313997160526316
C 0.16280710661578948 0.0 1.4090833454421052
C 1.4577256374210525 0.0 1.808355415168421
C 2.2341111764421053 0.0 0.5931391087368422
C 1.353123270863158 0.0 -0.39254157860000005
H 1.4716525626263157 0.0 -1.6453770364526317
H 3.3571801654421054 0.0 0.5032452138473684
H 1.7888482829105263 0.0 2.7643969579578944
H -0.5967523244210526 0.0 1.8422322866052632
