9
-0.06315789473684208
O 0.0973493325263158 0.0 0.0635130242368421
C 0.18474794872105263 0.0 1.4054277664947368
C 1.4456873216315789 0.0 1.8015709941157894
C 2.2450612817052633 0.0 0.6013698455789473
C 1.3475203234947368 0.0 -0.4137699996526316
H 1.4654919310473684 0.0 -1.4773435627684213
H 3.3113831128105264 0.0 0.493736582268421
H 1.8166459671210526 0.0 2.803694642168421
H -0.7504731665263158 0.0 1.9177708129210527
