9
-0.18947368421052635
O 0.09961606936842105 0.0 0.06002228739473685
C 0.17272900135263158 0.0 1.3904170296526317
C 1.4440496374210525 0.0 1.8097796256947367
C 2.2382459132842105 0.0 0.6062045824210527
C 1.3661076919157895 0.0 -0.4089043154421053
H 1.3605942468368422 0.0 -1.4824985101368422
H 3.2981767970210525 0.0 0.43707005595263154
H 1.8738171250157896 0.0 2.7927076948
H -0.7030990612631579 0.0 2.0114630234473685
