9
-0.27368421052631575
O 0.05921838515789474 0.0 0.03834965581578948
C 0.20052352766842108 0.0 1.382497661231579
C 1.4726496374210527 0.0 1.8094939414842104
C 2.2523768606526318 0.0 0.6086460561052632
C 1.344576112968421 0.0 -0.3795525259684211
H 1.5017359310473684 0.0 -1.4363534575052632
H 3.3144142707052633 0.0 0.4628521612157894
H 1.7716089144894738 0.0 2.838959484273684
H -0.7008125349473684 0.0 1.9562026023947368
