9
-0.2736842105263158
O 0.10876343778947369 0.0 0.07049386634210526
C 0.14298963293157896 0.0 1.3808692401789473
C 1.4768671111052631 0.0 1.8143764677999998
C 2.2584608606526317 0.0 0.6105207929473685
C 1.3196489550736843 0.0 -0.4314923154421053
H 1.544176141573684 0.0 -1.4881865101368421
H 3.329324586494737 0.0 0.506663529636842
H 1.8177630197526315 0.0 2.834829589536842
H -0.7309068507368421 0.0 2.0159369181842104
