9
-0.3157894736842105
O 0.12461143778947367 0.0 0.02154270844736842
C 0.1825683697736842 0.0 1.4371886086
C 1.453429216368421 0.0 1.7996427835894737
C 2.243635808021053 0.0 0.5935016350526316
C 1.3194074813894736 0.0 -0.3988470522842106
H 1.3602355099947367 0.0 -1.4689441943473684
H 3.315341218073684 0.0 0.5805597401631578
H 1.7356143881736843 0.0 2.835409379010526
H -0.7152095875789474 0.0 2.0174958655526316
