9
-0.31578947368421056
O 0.078825122 0.0 0.05103744528947369
C 0.1662546855631579 0.0 1.4006265033368421
C 1.4665786900526316 0.0 1.8374648888526315
C 2.2753789659157895 0.0 0.5917300561052632
C 1.3471211656 0.0 -0.4182996838631579
H 1.3210902468368422 0.0 -1.496076825926316
H 3.353526481231579 0.0 0.5929292138473684
H 1.9061849144894738 0.0 2.8218967474315786
H -0.8288148507368421 0.0 1.8154790234473683
