9
-0.31578947368421056
O 0.09759564831578947 0.0 0.06312902423684211
C 0.16052626451052632 0.0 1.4101317664947368
C 1.4582418479473684 0.0 1.8090690993789473
C 2.233271597494737 0.0 0.5929584771578947
C 1.3530959024421052 0.0 -0.39007757860000003
H 1.4740618257842106 0.0 -1.6720915627684212
H 3.3650685864947367 0.0 0.5028186875315789
H 1.7859543881736841 0.0 2.756812536905263
H -0.5729085349473684 0.0 1.828925339236842
