9
-0.231578947368421
O 0.11567543778947367 0.0 0.07465807686842105
C 0.18720373819473685 0.0 1.3707391349157896
C 1.463705216368421 0.0 1.7875522572736842
C 2.228494334336842 0.0 0.6092917403157895
C 1.328191060336842 0.0 -0.3864001049157895
H 1.387213404731579 0.0 -1.4513559838210528
H 3.292883744389474 0.0 0.5206186875315789
H 1.8182880723842105 0.0 2.7950698000631578
H -0.7624590612631579 0.0 1.8565049181842106
