9
-0.31578947368421056
O 0.09767775357894737 0.0 0.06329639265789475
C 0.19414521187894737 0.0 1.3938433454421053
C 1.4508871111052632 0.0 1.7964627835894735
C 2.231411597494737 0.0 0.5940574245263158
C 1.3523190603368422 0.0 -0.3896923154421053
H 1.4737807731526316 0.0 -1.6692462996105264
H 3.3833054286 0.0 0.5005639506894737
H 1.8337933355421052 0.0 2.8856167474315786
H -0.9215653770526316 0.0 2.0234800760789473
