9
-0.231578947368421
O 0.097545122 -0.013626105263157893 0.0632111295
C 0.1776325803 0.01662968421052631 1.4022686086
C 1.454370269 0.009103368421052629 1.8037164678
C 2.2395684396 0.009103368421052629 0.594313214
C 1.3533011656 0.01662968421052631 -0.4085575786
H 1.4559923521 -0.07529326315789471 -1.4717326154
H 3.3059054286 -0.12319536842105261 0.5060176349
H 1.8076585987 -0.12319536842105261 2.8136956948
H -0.751736956 -0.07529326315789471 1.9287274445
