9
-0.35789473684210527
O 0.11469543778947368 0.0 0.03599681371052632
C 0.15033236977368422 0.0 1.4278222928105264
C 1.4637578479473685 0.0 1.8070413099052631
C 2.2332014922315793 0.0 0.5864681613684211
C 1.3420453761263158 0.0 -0.3740815786
H 1.5512138257842105 0.0 -1.4253601943473686
H 3.2857487970210526 0.0 0.34276395068947363
H 1.9645453355421052 0.0 2.766489379010526
H -0.8325173770526316 0.0 1.8633221813421053
