9
-0.27368421052631575
O 0.09669670094736842 0.0 0.06451934002631579
C 0.20846584345789473 0.0 1.4159582928105263
C 1.416744163736842 0.0 1.794419415168421
C 2.2633707553894737 0.0 0.6248919508421052
C 1.3282508498105263 0.0 -0.4311447364947369
H 1.497157194205263 0.0 -1.496046720663158
H 3.3296420601789474 0.0 0.4527997401631578
H 1.8466038618578948 0.0 2.7703578000631577
H -0.7462605349473684 0.0 1.8812487076578948
