9
-0.18947368421052635
O 0.09762470094736841 0.0 0.06326228739473684
C 0.18754015924736844 0.0 1.3972134507052631
C 1.4522803742631578 0.0 1.799364257273684
C 2.2346743343368423 0.0 0.5941597403157896
C 1.3527119024421053 0.0 -0.39723842070526316
H 1.466665404731579 0.0 -1.5902408259263159
H 3.3523454286 0.0 0.5027454243736842
H 1.8233394408052632 0.0 2.8568483263789473
H -0.853634008631579 0.0 1.9855790234473685
