9
-0.1473684210526316
O 0.09915585884210526 0.0 0.06073091897368421
C 0.1738186855631579 0.0 1.3930507138631578
C 1.4463431111052631 0.0 1.8084322572736842
C 2.238539808021053 0.0 0.6035620561052631
C 1.3632617971789474 0.0 -0.40882726281052634
H 1.3817938257842106 0.0 -1.4801060890842106
H 3.299894270705263 0.0 0.45239174016315786
H 1.8591152302789473 0.0 2.7973716948
H -0.7139074823157895 0.0 1.9930773392368422
