9
-0.1473684210526316
O 0.11017606936842105 0.0 0.04376586634210526
C 0.17993594872105265 0.0 1.4185646086
C 1.453931111105263 0.0 1.801815415168421
C 2.241466544863158 0.0 0.5939344771578948
C 1.3374841129684212 0.0 -0.4040259996526316
H 1.4113058257842106 0.0 -1.4704313522421053
H 3.3103087970210527 0.0 0.5408039506894736
H 1.7740379671210527 0.0 2.8238287474315786
H -0.7346908507368421 0.0 1.9701527076578946
