9
-0.231578947368421
O 0.104189122 0.0 0.05290355055263159
C 0.2005866855631579 0.0 1.3987648191263158
C 1.464446269 0.0 1.8396760467473683
C 2.202640860652632 0.0 0.5997738455789474
C 1.3471457971789473 0.0 -0.4308979996526316
H 1.4760077205210527 0.0 -1.492317668031579
H 3.267074270705263 0.0 0.4987090033210526
H 1.8300823881736843 0.0 2.8462302211157895
H -0.7409870612631579 0.0 1.9021167076578946
