9
-0.2736842105263158
O 0.097545122 0.0 0.0632111295
C 0.1776325803 0.016653684210526317 1.4022686086
C 1.454370269 -0.02575642105263158 1.8037164678
C 2.2395684396 0.02575642105263158 0.594313214
C 1.3533011656 -0.016653684210526317 -0.4085575786
H 1.4559923521 0.0880578947368421 -1.4717326154
H 3.3059054286 -0.13487705263157895 0.5060176349
H 1.8076585987 0.13487705263157895 2.8136956948
H -0.751736956 -0.0880578947368421 1.9287274445
