9
-0.31578947368421056
O 0.11267775357894737 0.0 0.039198497921052636
C 0.15354415924736842 0.0 1.4248159770210527
C 1.4626534268947369 0.0 1.8066501520105263
C 2.2339505448631582 0.0 0.5873911087368422
C 1.3433695866526316 0.0 -0.3781375786
H 1.540011299468421 0.0 -1.4308157732947369
H 3.2881201654421055 0.0 0.3619702664789473
H 1.9460880723842107 0.0 2.7720430632210524
H -0.8230137981052632 0.0 1.8710169181842105
