9
-0.06315789473684214
O 0.10295838515789474 0.0 0.054877445289473685
C 0.17861973819473687 0.0 1.4092526086000001
C 1.4541820584736842 0.0 1.8029017309578947
C 2.2403819132842107 0.0 0.5941508982105264
C 1.3465224287578947 0.0 -0.4066154733368421
H 1.4368409836789473 0.0 -1.4711749311894737
H 3.307792586494737 0.0 0.5209260559526315
H 1.7932497565947367 0.0 2.818038431642105
H -0.7444314823157895 0.0 1.9464811287105264
