9
-0.021052631578947323
O 0.097545122 0.0 0.0632111295
C 0.1776325803 0.0012810526315789447 1.4022686086
C 1.454370269 -0.0019812631578947325 1.8037164678
C 2.2395684396 0.0019812631578947325 0.594313214
C 1.3533011656 -0.0012810526315789447 -0.4085575786
H 1.4559923521 0.006773684210526301 -1.4717326154
H 3.3059054286 -0.010375157894736819 0.5060176349
H 1.8076585987 0.010375157894736819 2.8136956948
H -0.751736956 -0.006773684210526301 1.9287274445
