9
-0.06315789473684208
O 0.097545122 -0.00023494736842105256 0.0632111295
C 0.1776325803 0.0050475789473684194 1.4022686086
C 1.454370269 -0.004282736842105261 1.8037164678
C 2.2395684396 -0.004282736842105261 0.594313214
C 1.3533011656 0.0050475789473684194 -0.4085575786
H 1.4559923521 -0.030363789473684198 -1.4717326154
H 3.3059054286 0.02311136842105262 0.5060176349
H 1.8076585987 0.02311136842105262 2.8136956948
H -0.751736956 -0.030363789473684198 1.9287274445
