9
-0.1473684210526316
O 0.09744049042105263 0.0 0.06337176107894738
C 0.1758007908263158 0.0 1.4035123980736843
C 1.451228374263158 0.0 1.7959000467473685
C 2.247943386968421 0.0 0.5940066876842106
C 1.352915060336842 0.0 -0.40639715754736844
H 1.4591165626263158 0.0 -1.5003220890842106
H 3.211340586494737 0.0 0.5131399506894736
H 1.8397937565947369 0.0 2.9034401158526313
H -0.7266946402105263 0.0 1.9141247076578947
