9
-0.18947368421052635
O 0.1137849114736842 0.0 0.03821007686842105
C 0.18059405398421052 0.0 1.4232206086
C 1.4538056374210526 0.0 1.8012722572736841
C 2.2420088606526316 0.0 0.593826266631579
C 1.3329649550736842 0.0 -0.40273126281052635
H 1.3985382468368421 0.0 -1.4700595627684212
H 3.3115669022842105 0.0 0.5507428980578947
H 1.7644320723842106 0.0 2.8267239053263156
H -0.7298205349473684 0.0 1.9819884971315789
