9
-0.1473684210526316
O 0.07690764831578947 0.0 0.04982418213157895
C 0.18995847503684213 0.0 1.3916227138631578
C 1.4642130058421052 0.0 1.806827415168421
C 2.2464652817052633 0.0 0.6020308982105264
C 1.3486030603368422 0.0 -0.39293947333684215
H 1.480623509994737 0.0 -1.4526822996105264
H 3.3104871128105264 0.0 0.4827746875315789
H 1.7882472302789474 0.0 2.8272992737473683
H -0.7243161138947368 0.0 1.9435217602894737
