9
-0.06315789473684214
O 0.09751417463157895 0.0 0.06319155055263158
C 0.1786487908263158 0.0 1.4014917664947368
C 1.455493216368421 0.0 1.807122573063158
C 2.243157702757895 0.0 0.5939525824210526
C 1.3530036919157895 0.0 -0.40731147333684214
H 1.4576799310473685 0.0 -1.4874557732947369
H 3.266495533863158 0.0 0.5094117401631578
H 1.7948009144894737 0.0 2.776535484273684
H -0.7653879033684211 0.0 1.9366518655526317
