9
-0.021052631578947323
O 0.09459691147368421 0.0 0.06129870844736843
C 0.17939342240526315 0.0 1.4007477664947368
C 1.455776374263158 0.0 1.8041608888526315
C 2.240553702757895 0.0 0.5954157403157895
C 1.352630007705263 0.0 -0.4063264207052632
H 1.4595110889421052 0.0 -1.4690111417157896
H 3.3065599549157896 0.0 0.5026972138473684
H 1.804885546068421 0.0 2.8156390632210524
H -0.7478196928421053 0.0 1.9308409181842106
