9
-0.35789473684210527
O 0.1255647009473684 0.0 0.08090186634210526
C 0.1924243697736842 0.0 1.3535412401789473
C 1.4687970058421052 0.0 1.778735415168421
C 2.2224539132842107 0.0 0.6174618455789475
C 1.3144946392842105 0.0 -0.3743142101789474
H 1.3496976152578948 0.0 -1.4402414575052633
H 3.2857810075473686 0.0 0.5285828980578947
H 1.8240859671210525 0.0 2.7849102211157892
H -0.7683074823157895 0.0 1.8171108129210527
