9
-0.06315789473684208
O 0.093801122 0.0 0.060776392657894744
C 0.1753570013526316 0.0 1.4019401875473685
C 1.4568119532105264 0.0 1.8104661520105263
C 2.246730544863158 0.0 0.5937965824210527
C 1.3520651656 0.0 -0.4105059996526316
H 1.4290119310473683 0.0 -1.4766014575052633
H 3.315429639126316 0.0 0.5233999506894736
H 1.8273638618578947 0.0 2.8153359053263154
H -0.7671525349473685 0.0 1.9060777602894736
