9
-0.06315789473684208
O 0.09935712199999999 0.0 0.06039997160526316
C 0.1838927908263158 0.0 1.4013130296526315
C 1.457118269 0.0 1.8135236256947367
C 2.2294972817052634 0.0 0.5958024771578948
C 1.3516224287578948 0.0 -0.4146504207052632
H 1.4614510889421053 0.0 -1.477346720663158
H 3.2953151128105262 0.0 0.5040243717421052
H 1.8137741776473684 0.0 2.822568747431579
H -0.7488051665263158 0.0 1.9214699708157894
