9
-0.10526315789473684
O 0.09756196410526316 0.0 0.06318376107894737
C 0.1719304750368421 0.0 1.4048896612315789
C 1.4556607953157894 0.0 1.8055006783263157
C 2.237469492231579 0.0 0.5938616350526316
C 1.3532327445473684 0.0 -0.4023975786
H 1.4620155099947367 0.0 -1.5385189311894738
H 3.325626481231579 0.0 0.5049513191105263
H 1.8004238618578947 0.0 2.7947346421684207
H -0.6921274823157895 0.0 1.8954600760789473
