9
-0.06315789473684214
O 0.097545122 0.0 0.0632111295
C 0.1776325803 0.003843157894736844 1.4022686086
C 1.454370269 -0.005943789473684213 1.8037164678
C 2.2395684396 0.005943789473684213 0.594313214
C 1.3533011656 -0.003843157894736844 -0.4085575786
H 1.4559923521 0.020321052631578955 -1.4717326154
H 3.3059054286 -0.03112547368421054 0.5060176349
H 1.8076585987 0.03112547368421054 2.8136956948
H -0.751736956 -0.020321052631578955 1.9287274445
