9
-0.1473684210526316
O 0.10119396410526316 0.0 0.06558376107894737
C 0.1844188960894737 0.0 1.3916094507052632
C 1.4366978479473684 0.0 1.8152657309578948
C 2.2429240185473684 0.0 0.5734664771578948
C 1.3463276919157896 0.0 -0.39802073649473685
H 1.4891222468368421 0.0 -1.4552862996105265
H 3.315058481231579 0.0 0.5502620559526316
H 1.8517910197526315 0.0 2.8040578000631577
H -0.7232417981052631 0.0 1.9522798655526317
