9
-0.1473684210526316
O 0.1046070167368421 0.0 0.052005234763157895
C 0.16639131714210528 0.0 1.412790713863158
C 1.4582357426842105 0.0 1.805085520431579
C 2.2369467553894737 0.0 0.5910828982105264
C 1.3486664287578947 0.0 -0.39436157860000004
H 1.4952011942052632 0.0 -1.4526380890842105
H 3.2976056391263158 0.0 0.43879552963684204
H 1.8722590197526316 0.0 2.7942578000631575
H -0.7849994823157895 0.0 1.9017958655526315
