9
-0.10526315789473689
O 0.097545122 0.0 0.0632111295
C 0.1776325803 0.009364210526315794 1.4022686086
C 1.454370269 -0.015262105263157903 1.8037164678
C 2.2395684396 0.015262105263157903 0.594313214
C 1.3533011656 -0.009364210526315794 -0.4085575786
H 1.4559923521 -0.02645789473684212 -1.4717326154
H 3.3059054286 0.031235789473684227 0.5060176349
H 1.8076585987 -0.031235789473684227 2.8136956948
H -0.751736956 0.026461052631578958 1.9287274445
