9
-0.06315789473684208
O 0.10248975357894737 0.0 0.0663330242368421
C 0.1802428960894737 0.0 1.3936696612315789
C 1.4569161637368422 0.0 1.7993080467473683
C 2.2365482290736844 0.0 0.598398266631579
C 1.3464529550736843 0.0 -0.402514631231579
H 1.437234457363158 0.0 -1.4661753522421053
H 3.3023540601789474 0.0 0.5099997401631579
H 1.8105575460684211 0.0 2.8086159053263158
H -0.7546611665263158 0.0 1.909030391868421
