9
-0.021052631578947323
O 0.09747985884210526 0.0 0.06331176107894737
C 0.18000436977368423 0.0 1.4033216612315789
C 1.4514759532105264 0.0 1.803001309905263
C 2.2413993869684212 0.0 0.5966654245263158
C 1.3513742182315789 0.0 -0.41029505228421054
H 1.4591588784157894 0.0 -1.4736029311894738
H 3.307731323336842 0.0 0.5019239506894736
H 1.8106543881736843 0.0 2.8103620105894733
H -0.7513156928421053 0.0 1.9250752339736843
