9
-0.10526315789473689
O 0.097545122 -0.015235789473684218 0.0632111295
C 0.1776325803 0.012231578947368427 1.4022686086
C 1.454370269 -0.005686315789473687 1.8037164678
C 2.2395684396 -0.0056873684210526345 0.594313214
C 1.3533011656 0.012231578947368427 -0.4085575786
H 1.4559923521 0.0382684210526316 -1.4717326154
H 3.3059054286 0.004654736842105265 0.5060176349
H 1.8076585987 0.004655789473684213 2.8136956948
H -0.751736956 0.038266315789473704 1.9287274445
