9
-0.06315789473684208
O 0.10013396410526315 0.0 0.06489176107894737
C 0.16963805398421053 0.0 1.3973302928105262
C 1.4595618479473684 0.0 1.8061764677999999
C 2.2439282290736844 0.0 0.5980534245263158
C 1.3455352708631578 0.0 -0.4138502101789474
H 1.4763424573631578 0.0 -1.475529668031579
H 3.3113098496526314 0.0 0.5061666875315789
H 1.8099903881736843 0.0 2.818572747431579
H -0.746930008631579 0.0 1.9488527076578948
