9
-0.06315789473684214
O 0.09755522726315789 0.0 0.06319470844736842
C 0.17421131714210528 0.0 1.4038412401789473
C 1.4551445847894737 0.0 1.8047869941157895
C 2.2383090711789477 0.0 0.594042266631579
C 1.353260112968421 0.0 -0.40486157860000005
H 1.459606246836842 0.0 -1.5118044048736843
H 3.3177380601789475 0.0 0.5053778454263157
H 1.803317756594737 0.0 2.8023190632210526
H -0.7159712717894737 0.0 1.9087670234473684
