9
-0.18947368421052635
O 0.097545122 -0.000704842105263158 0.0632111295
C 0.1776325803 0.015142736842105266 1.4022686086
C 1.454370269 -0.01284821052631579 1.8037164678
C 2.2395684396 -0.01284821052631579 0.594313214
C 1.3533011656 0.015142736842105266 -0.4085575786
H 1.4559923521 -0.09109136842105266 -1.4717326154
H 3.3059054286 0.0693341052631579 0.5060176349
H 1.8076585987 0.0693341052631579 2.8136956948
H -0.751736956 -0.09109136842105266 1.9287274445
