9
-0.021052631578947323
O 0.09855396410526315 0.0 0.06161028739473685
C 0.1760266855631579 0.0 1.403771766494737
C 1.4549224795263158 0.0 1.8039120467473684
C 2.2391939132842107 0.0 0.5938517403157895
C 1.3526390603368421 0.0 -0.40652957860000005
H 1.4615936152578948 0.0 -1.469004825926316
H 3.3047197443894736 0.0 0.49641447700526314
H 1.8168872302789474 0.0 2.8109188526947366
H -0.7564887454736842 0.0 1.9248800760789473
