9
-0.35789473684210527
O 0.09760238515789474 0.0 0.06311807686842105
C 0.15824542240526318 0.0 1.4111801875473684
C 1.4587580584736841 0.0 1.8097827835894735
C 2.2324320185473687 0.0 0.5927778455789474
C 1.3530685340210526 0.0 -0.3876135786
H 1.4764710889421053 0.0 -1.6988060890842107
H 3.3729570075473685 0.0 0.5023921612157894
H 1.7830604934368421 0.0 2.7492281158526315
H -0.5490647454736842 0.0 1.815618391868421
