9
-0.18947368421052624
O 0.097545122 -0.011148631578947365 0.0632111295
C 0.1776325803 0.013606105263157888 1.4022686086
C 1.454370269 0.007448210526315786 1.8037164678
C 2.2395684396 0.007448210526315786 0.594313214
C 1.3533011656 0.013606105263157888 -0.4085575786
H 1.4559923521 -0.06160357894736839 -1.4717326154
H 3.3059054286 -0.10079621052631575 0.5060176349
H 1.8076585987 -0.10079621052631575 2.8136956948
H -0.751736956 -0.06160357894736839 1.9287274445
