9
-0.18947368421052635
O 0.0710112272631579 0.0 0.04599934002631579
C 0.19348015924736844 0.0 1.3885810296526315
C 1.467025216368421 0.0 1.8077162572736842
C 2.248435808021053 0.0 0.6042359508421054
C 1.3472607445473685 0.0 -0.38847715754736845
H 1.4876609836789474 0.0 -1.4472393522421054
H 3.311796165442105 0.0 0.47613384542631576
H 1.7827011250157894 0.0 2.8311860105894735
H -0.7164815875789474 0.0 1.9477487076578948
