9
-0.10526315789473684
O 0.10185985884210526 0.0 0.06601218213157894
C 0.1643083697736842 0.0 1.3940380822842104
C 1.4630229005789475 0.0 1.8078164678
C 2.246834755389474 0.0 0.6005468982105263
C 1.3403580077052633 0.0 -0.417378631231579
H 1.4899091942052631 0.0 -1.4780610364526316
H 3.314912797021053 0.0 0.5062660559526315
H 1.8115449144894737 0.0 2.8218241158526314
H -0.7437253770526316 0.0 1.962269549763158
