9
-0.021052631578947323
O 0.09755396410526315 0.0 0.06321681371052632
C 0.17873342240526316 0.0 1.4017069243894738
C 1.4541380584736843 0.0 1.8032328888526314
C 2.239024650126316 0.0 0.5942961613684211
C 1.3532356919157895 0.0 -0.4072998943894737
H 1.4571782468368422 0.0 -1.4849001943473685
H 3.3110654286 0.0 0.5056540559526316
H 1.8094009144894736 0.0 2.818490431642105
H -0.7630588507368421 0.0 1.935044286605263
