9
-0.18947368421052635
O 0.09695775357894737 0.0 0.06411681371052633
C 0.1989786855631579 0.0 1.4117460822842105
C 1.4283214268947368 0.0 1.7972800467473684
C 2.2560469659157896 0.0 0.6154831087368422
C 1.3359586392842104 0.0 -0.4241948417578948
H 1.4844910889421052 0.0 -1.4885654575052634
H 3.322338481231579 0.0 0.4691744770052631
H 1.834620703963158 0.0 2.7836925369052627
H -0.7479455875789474 0.0 1.8958575497631578
