9
-0.02105263157894738
O 0.097545122 -0.0030471578947368436 0.0632111295
C 0.1776325803 0.0024463157894736853 1.4022686086
C 1.454370269 -0.0011372631578947373 1.8037164678
C 2.2395684396 -0.001137473684210527 0.594313214
C 1.3533011656 0.0024463157894736853 -0.4085575786
H 1.4559923521 0.0076536842105263195 -1.4717326154
H 3.3059054286 0.0009309473684210531 0.5060176349
H 1.8076585987 0.0009311578947368425 2.8136956948
H -0.751736956 0.007653263157894741 1.9287274445
