9
-0.2736842105263158
O 0.11066006936842104 0.0 0.04240018213157895
C 0.15675594872105264 0.0 1.421809661231579
C 1.4615490058421052 0.0 1.8062589941157894
C 2.2346995974947372 0.0 0.5883140561052632
C 1.3446937971789474 0.0 -0.38219357860000003
H 1.5288087731526316 0.0 -1.4362713522421053
H 3.290491533863158 0.0 0.381176582268421
H 1.927630809226316 0.0 2.777596747431579
H -0.8135102191578948 0.0 1.8787116550263159
