9
-0.1473684210526316
O 0.10908259568421053 0.0 0.07049555055263158
C 0.18372331714210527 0.0 1.3822043980736842
C 1.4603106900526315 0.0 1.7934301520105262
C 2.2325212817052633 0.0 0.6038450034736842
C 1.3373220077052632 0.0 -0.39445736807368426
H 1.4122239310473683 0.0 -1.458765668031579
H 3.2976189022842104 0.0 0.5153092138473684
H 1.8144228092263157 0.0 2.8018428526947368
H -0.7585601138947369 0.0 1.8827676550263157
