9
-0.3157894736842105
O 0.05332196410526316 0.0 0.03452481371052632
C 0.20404521187894736 0.0 1.3794559770210526
C 1.4754618479473685 0.0 1.8103827835894737
C 2.2543473869684214 0.0 0.6108511087368421
C 1.3432337971789474 0.0 -0.3750902101789474
H 1.508773404731579 0.0 -1.4309105101368422
H 3.315723323336842 0.0 0.45621131911052626
H 1.7660628092263158 0.0 2.8428462211157894
H -0.692978008631579 0.0 1.9604295497631579
