9
-0.1473684210526316
O 0.10358575357894736 0.0 0.06713260318421053
C 0.15897868556315792 0.0 1.3907458717578947
C 1.4664839532105263 0.0 1.8094564678
C 2.2497412817052633 0.0 0.6030403718947369
C 1.3351807445473685 0.0 -0.42090705228421055
H 1.5034759310473684 0.0 -1.4805924048736843
H 3.3185157443894737 0.0 0.5063654243736841
H 1.8130994408052632 0.0 2.825075484273684
H -0.7405207454736842 0.0 1.975686391868421
