9
-0.35789473684210527
O 0.10640659568421053 0.0 0.06897323476315789
C 0.19411363293157896 0.0 1.3763820822842106
C 1.4114515321578947 0.0 1.8317646783263157
C 2.2477177027578947 0.0 0.5436854245263159
C 1.3363655866526316 0.0 -0.3829681049157895
H 1.5364506678894736 0.0 -1.4317915627684212
H 3.328134270705263 0.0 0.6134683717421052
H 1.9148373355421053 0.0 2.790289379010526
H -0.6825344296842105 0.0 1.9859261813421052
