9
-0.10526315789473684
O 0.10247038515789474 0.0 0.06641428739473684
C 0.1776325803 0.0 1.3989180822842104
C 1.4494860584736842 0.0 1.8139164678
C 2.2468979132842106 0.0 0.5857016350526316
C 1.350243270863158 0.0 -0.40720494702105264
H 1.4386776152578948 0.0 -1.471854720663158
H 3.3099412180736842 0.0 0.4490386875315789
H 1.7572101776473685 0.0 2.8405851684842105
H -0.758879061263158 0.0 1.912966391868421
