9
-0.35789473684210527
O 0.09736975357894737 0.0 0.06310018213157895
C 0.18339110661578947 0.0 1.397866503336842
C 1.4607336374210527 0.0 1.8230177309578948
C 2.259907597494737 0.0 0.5922696350526316
C 1.3516154813894736 0.0 -0.4014963154421053
H 1.4655552994684211 0.0 -1.5608305101368423
H 3.082582691757895 0.0 0.5252508980578947
H 1.7347983881736841 0.0 2.6031211684842104
H -0.8290923244210526 0.0 1.9736324971315788
