9
-0.18947368421052635
O 0.11237901673684211 0.0 0.07257681371052632
C 0.18546352766842106 0.0 1.3764717664947368
C 1.4620079532105263 0.0 1.7904912046421053
C 2.230507808021053 0.0 0.6065683718947369
C 1.3327565340210525 0.0 -0.39042873649473686
H 1.3997186678894737 0.0 -1.4550608259263158
H 3.295251323336842 0.0 0.5179639506894737
H 1.8163554408052631 0.0 2.7984563263789473
H -0.7605095875789474 0.0 1.8696362866052632
