9
-0.27368421052631575
O 0.09766006936842105 0.0 0.06328502423684211
C 0.19194352766842107 0.0 1.3949667138631578
C 1.4513515321578947 0.0 1.7974299414842105
C 2.2324991764421056 0.0 0.5940915297894738
C 1.3524500077052632 0.0 -0.3922076838631579
H 1.4714089836789475 0.0 -1.6429111417157896
H 3.3729854286 0.0 0.5012911085842104
H 1.8303087039631578 0.0 2.8760272737473684
H -0.8989215875789474 0.0 2.010846391868421
