9
-0.27368421052631575
O 0.081321122 0.0 0.052660603184210536
C 0.16777173819473684 0.0 1.4008454507052632
C 1.4649509005789474 0.0 1.8329650993789472
C 2.2706042290736845 0.0 0.5920744771578947
C 1.3479451656 0.0 -0.41700073649473685
H 1.339077194205263 0.0 -1.4928309311894739
H 3.3471770075473684 0.0 0.5813410033210525
H 1.8930480723842105 0.0 2.820803273747368
H -0.8185377981052632 0.0 1.8305788129210527
