9
-0.31578947368421056
O 0.09739038515789473 0.0 0.0631132347631579
C 0.18271363293157897 0.0 1.3983843980736843
C 1.4599850058421053 0.0 1.8207469941157894
C 2.2575147553894737 0.0 0.5925100561052632
C 1.3518137971789475 0.0 -0.40232705228421056
H 1.4644302468368422 0.0 -1.5503484048736844
H 3.1088559549157893 0.0 0.5229881612157894
H 1.7433701776473685 0.0 2.627894642168421
H -0.8199916928421053 0.0 1.9683495497631578
