9
-0.06315789473684214
O 0.097545122 -0.009141473684210531 0.0632111295
C 0.1776325803 0.007338947368421056 1.4022686086
C 1.454370269 -0.0034117894736842122 1.8037164678
C 2.2395684396 -0.0034124210526315806 0.594313214
C 1.3533011656 0.007338947368421056 -0.4085575786
H 1.4559923521 0.02296105263157896 -1.4717326154
H 3.3059054286 0.0027928421052631595 0.5060176349
H 1.8076585987 0.0027934736842105275 2.8136956948
H -0.751736956 0.02295978947368422 1.9287274445
