9
-0.1473684210526316
O 0.08880912199999999 0.0 0.05753007686842106
C 0.17232289608947368 0.0 1.4015022928105263
C 1.4600675321578946 0.0 1.8194657309578948
C 2.256280018547369 0.0 0.5931077403157895
C 1.3504171656 0.0 -0.4131038943894737
H 1.3930380363105264 0.0 -1.4830932469789475
H 3.3281285864947368 0.0 0.5465763717421053
H 1.8536375460684211 0.0 2.8175228526947365
H -0.7877066402105264 0.0 1.8758781813421053
