9
-0.3157894736842105
O 0.11048933252631579 0.0 0.07161428739473685
C 0.13765994872105264 0.0 1.3775770296526315
C 1.4803281637368422 0.0 1.8160164678
C 2.261367386968421 0.0 0.613014266631579
C 1.3144716919157895 0.0 -0.4350207364947369
H 1.5577428784157894 0.0 -1.490717878557895
H 3.332927533863158 0.0 0.5067628980578947
H 1.819317546068421 0.0 2.8380809579578945
H -0.7277022191578948 0.0 2.0293537602894736
