9
-0.3157894736842105
O 0.097545122 -0.04570736842105263 0.0632111295
C 0.1776325803 0.03669473684210526 1.4022686086
C 1.454370269 -0.017058947368421052 1.8037164678
C 2.2395684396 -0.017062105263157896 0.594313214
C 1.3533011656 0.03669473684210526 -0.4085575786
H 1.4559923521 0.11480526315789473 -1.4717326154
H 3.3059054286 0.013964210526315789 0.5060176349
H 1.8076585987 0.013967368421052631 2.8136956948
H -0.751736956 0.11479894736842106 1.9287274445
