9
-0.3157894736842105
O 0.09732091147368421 0.0 0.0635553400263158
C 0.17370731714210527 0.0 1.4049338717578947
C 1.4476376374210527 0.0 1.7869669941157895
C 2.2575147553894737 0.0 0.5936563718947369
C 1.3524737971789473 0.0 -0.4039281049157895
H 1.4626870889421053 0.0 -1.532995773294737
H 3.103266481231579 0.0 0.5212797401631578
H 1.876519651331579 0.0 3.00600516848421
H -0.6980748507368422 0.0 1.8974358655526316
