9
-0.10526315789473689
O 0.097545122 -0.00039157894736842124 0.0632111295
C 0.1776325803 0.008412631578947373 1.4022686086
C 1.454370269 -0.007137894736842108 1.8037164678
C 2.2395684396 -0.007137894736842108 0.594313214
C 1.3533011656 0.008412631578947373 -0.4085575786
H 1.4559923521 -0.05060631578947371 -1.4717326154
H 3.3059054286 0.03851894736842107 0.5060176349
H 1.8076585987 0.03851894736842107 2.8136956948
H -0.751736956 -0.05060631578947371 1.9287274445
