9
-0.1473684210526316
O 0.0976070167368421 0.0 0.06325091897368422
C 0.18533847503684212 0.0 1.398336819126316
C 1.4527447953157895 0.0 1.800331415168421
C 2.2357619132842106 0.0 0.5941938455789474
C 1.3528428498105263 0.0 -0.3997537891263158
H 1.4642936152578947 0.0 -1.563905668031579
H 3.3420254286 0.0 0.503472582268421
H 1.8198548092263158 0.0 2.8472588526947367
H -0.8309902191578947 0.0 1.9729453392368421
