9
-0.27368421052631575
O 0.105397122 0.0 0.05102944528947369
C 0.20476015924736843 0.0 1.398127766494737
C 1.466278269 0.0 1.8462141520105262
C 2.1959267553894737 0.0 0.6007666876842106
C 1.3460266392842106 0.0 -0.4349598943894737
H 1.4796468784157895 0.0 -1.4960604048736843
H 3.2600140601789476 0.0 0.49738016121578943
H 1.834159440805263 0.0 2.8521455895368417
H -0.7390325349473684 0.0 1.897278391868421
