9
-0.18947368421052635
O 0.10641059568421052 0.0 0.06897681371052632
C 0.1776325803 0.0 1.396237661231579
C 1.4455786900526315 0.0 1.8220764677999999
C 2.252761492231579 0.0 0.5788123718947369
C 1.3477969550736841 0.0 -0.40612284175789476
H 1.4248258257842106 0.0 -1.4719524048736843
H 3.3131698496526316 0.0 0.40345552963684206
H 1.716851440805263 0.0 2.8620967474315786
H -0.7645927454736843 0.0 1.900357549763158
