9
-0.231578947368421
O 0.06511480621052632 0.0 0.04217449792105264
C 0.19700184345789473 0.0 1.3855393454421052
C 1.4698374268947367 0.0 1.8086050993789473
C 2.250406334336842 0.0 0.6064410034736842
C 1.3459184287578947 0.0 -0.38401484175789474
H 1.4946984573631579 0.0 -1.4417964048736844
H 3.313105218073684 0.0 0.4694930033210526
H 1.7771550197526316 0.0 2.8350727474315787
H -0.7086470612631579 0.0 1.9519756550263159
