9
-0.1473684210526316
O 0.09747291147368421 0.0 0.0631654452894737
C 0.18000373819473686 0.0 1.4004559770210527
C 1.4569904795263158 0.0 1.8116640467473684
C 2.247943386968421 0.0 0.5934717403157895
C 1.352607060336842 0.0 -0.4056499996526316
H 1.4599300363105263 0.0 -1.5084199838210528
H 3.2139490075473685 0.0 0.5139372138473683
H 1.7776573355421053 0.0 2.726988536905263
H -0.7835891665263158 0.0 1.9472177602894736
