9
-0.02105263157894738
O 0.09919333252631579 0.0 0.06425176107894737
C 0.1785026855631579 0.0 1.3994022928105263
C 1.4552189005789473 0.0 1.8022469941157895
C 2.238561702757895 0.0 0.5956748982105263
C 1.3510184287578948 0.0 -0.40654326281052633
H 1.4497397205210527 0.0 -1.4698801943473685
H 3.3047216391263157 0.0 0.5073450033210526
H 1.8086249144894737 0.0 2.8120024316421053
H -0.7527116928421053 0.0 1.9221617602894736
