9
-0.06315789473684208
O 0.09757164831578947 0.0 0.06322818213157895
C 0.1809351066157895 0.0 1.400583555968421
C 1.4536736374210526 0.0 1.8022657309578947
C 2.2379370711789477 0.0 0.5942620561052632
C 1.3531047445473685 0.0 -0.40478452596842107
H 1.4595500363105263 0.0 -1.5112353522421054
H 3.3213854286 0.0 0.5049268980578947
H 1.812885546068421 0.0 2.8280799053263155
H -0.7857026402105263 0.0 1.9476779708157894
