9
-0.27368421052631575
O 0.11035080621052631 0.0 0.07153934002631579
C 0.1776325803 0.0 1.3935572401789473
C 1.4416713216315789 0.0 1.8302364678
C 2.2586250711789475 0.0 0.5719231087368422
C 1.3453506392842105 0.0 -0.4050407364947369
H 1.4109740363105263 0.0 -1.4720500890842105
H 3.316398481231579 0.0 0.35787237174210523
H 1.6764927039631579 0.0 2.883608326378947
H -0.7703064296842105 0.0 1.8877487076578947
