9
-0.231578947368421
O 0.09758217463157895 0.0 0.06315091897368422
C 0.16508794872105265 0.0 1.4080349243894736
C 1.4572094268947369 0.0 1.8076417309578947
C 2.234950755389474 0.0 0.5933197403157895
C 1.3531506392842105 0.0 -0.3950055786
H 1.469243299468421 0.0 -1.6186625101368421
H 3.3492917443894736 0.0 0.5036717401631579
H 1.7917421776473685 0.0 2.7719813790105263
H -0.6205961138947369 0.0 1.8555392339736843
