9
-0.02105263157894738
O 0.096297122 0.0 0.062399550552631584
C 0.17687405398421052 0.0 1.4021591349157896
C 1.4551841637368421 0.0 1.805966362536842
C 2.2419558080210527 0.0 0.5941410034736843
C 1.3528891656 0.0 -0.40920705228421056
H 1.4469988784157894 0.0 -1.4733555627684212
H 3.309080165442105 0.0 0.5118117401631579
H 1.8142270197526316 0.0 2.814242431642105
H -0.7568754823157895 0.0 1.9211775497631578
