9
-0.27368421052631575
O 0.12100259568421051 0.0 0.027098497921052636
C 0.18191026451052633 0.0 1.4325326086
C 1.4535546900526315 0.0 1.8001859414842105
C 2.243093492231579 0.0 0.5936098455789474
C 1.3239266392842106 0.0 -0.4001417891263158
H 1.3730030889421052 0.0 -1.4693159838210528
H 3.3140831128105264 0.0 0.5706207927947368
H 1.7452202829105263 0.0 2.8325142211157894
H -0.7200799033684211 0.0 2.0056600760789474
