9
-0.18947368421052635
O 0.09745227989473684 0.0 0.06315239265789474
C 0.18068121187894737 0.0 1.3999380822842105
C 1.457739111105263 0.0 1.8139347835894737
C 2.2503362290736844 0.0 0.593231319263158
C 1.3524087445473685 0.0 -0.4048192628105263
H 1.4610550889421052 0.0 -1.5189020890842106
H 3.1876757443894737 0.0 0.5161999506894737
H 1.769085546068421 0.0 2.7022150632210526
H -0.7926897981052632 0.0 1.9525007076578946
