9
-0.23157894736842108
O 0.10864238515789473 0.0 0.045601866342105266
C 0.15996773819473686 0.0 1.4188033454421052
C 1.4604445847894736 0.0 1.8058678362210525
C 2.2354486501263158 0.0 0.5892370034736842
C 1.3460180077052633 0.0 -0.38624957860000003
H 1.517606246836842 0.0 -1.4417269311894738
H 3.2928629022842104 0.0 0.4003828980578947
H 1.9091735460684212 0.0 2.783150431642105
H -0.8040066402105264 0.0 1.886406391868421
