9
-0.02105263157894738
O 0.09934954305263158 0.0 0.0604332347631579
C 0.17796163293157896 0.0 1.4045966086000001
C 1.4543075321578947 0.0 1.8034448888526315
C 2.239839597494737 0.0 0.5942591087368422
C 1.3510415866526315 0.0 -0.4079102101789474
H 1.4496085626263158 0.0 -1.471546720663158
H 3.306534481231579 0.0 0.5109871085842105
H 1.802855651331579 0.0 2.8151432737473683
H -0.7493017981052632 0.0 1.9346453392368421
