9
-0.231578947368421
O 0.09764238515789474 0.0 0.06327365581578948
C 0.18974184345789474 0.0 1.3960900822842106
C 1.4518159532105264 0.0 1.7983970993789473
C 2.233586755389474 0.0 0.5941256350526316
C 1.3525809550736843 0.0 -0.39472305228421056
H 1.4690371942052631 0.0 -1.6165759838210527
H 3.3626654286 0.0 0.5020182664789473
H 1.8268240723842106 0.0 2.866437800063158
H -0.8762777981052632 0.0 1.9982127076578946
