9
-0.18947368421052624
O 0.097545122 -0.02742442105263157 0.0632111295
C 0.1776325803 0.022016842105263147 1.4022686086
C 1.454370269 -0.010235368421052627 1.8037164678
C 2.2395684396 -0.010237263157894734 0.594313214
C 1.3533011656 0.022016842105263147 -0.4085575786
H 1.4559923521 0.06888315789473681 -1.4717326154
H 3.3059054286 0.00837852631578947 0.5060176349
H 1.8076585987 0.008380421052631575 2.8136956948
H -0.751736956 0.0688793684210526 1.9287274445
