9
-0.3157894736842105
O 0.10536406936842105 0.0 0.06829534002631579
C 0.1921746855631579 0.0 1.379427555968421
C 1.4165007953157895 0.0 1.8284648888526316
C 2.24675896591579 0.0 0.5496416350526316
C 1.3383580077052633 0.0 -0.385978631231579
H 1.5269849836789473 0.0 -1.4364905101368421
H 3.325519112810526 0.0 0.6008271085842105
H 1.9022280723842104 0.0 2.7930430632210523
H -0.6906759033684211 0.0 1.9791969181842106
