9
-0.35789473684210527
O 0.11221522726315789 0.0 0.07273470844736843
C 0.13233026451052632 0.0 1.3742848191263157
C 1.483789216368421 0.0 1.8176564678
C 2.2642739132842107 0.0 0.6155077403157895
C 1.3092944287578947 0.0 -0.43854915754736845
H 1.5713096152578947 0.0 -1.4932492469789476
H 3.336530481231579 0.0 0.5068622664789473
H 1.8208720723842104 0.0 2.8413323263789474
H -0.7244975875789473 0.0 2.0427706023947367
