9
-0.18947368421052624
O 0.10531164831578947 0.0 0.06825302423684211
C 0.1536490013526316 0.0 1.3874536612315789
C 1.4699450058421053 0.0 1.8110964677999999
C 2.252647808021053 0.0 0.6055338455789474
C 1.3300034813894737 0.0 -0.4244354733368421
H 1.5170426678894737 0.0 -1.4831237732947369
H 3.3221186917578946 0.0 0.5064647927947368
H 1.8146539671210526 0.0 2.8283268526947367
H -0.7373161138947368 0.0 1.9891032339736843
