9
-0.06315789473684208
O 0.08870049042105263 0.0 0.05747386634210527
C 0.18291510661578947 0.0 1.3977060822842104
C 1.4585885847894737 0.0 1.8050497309578948
C 2.2425242290736844 0.0 0.5976207929473685
C 1.3512876919157895 0.0 -0.4018641049157895
H 1.4665485626263157 0.0 -1.4635681943473686
H 3.3078690075473682 0.0 0.4960563717421052
H 1.7993394408052632 0.0 2.8195258000631576
H -0.7399851665263159 0.0 1.9350678655526317
