9
-0.35789473684210527
O 0.097545122 0.0 0.0632111295
C 0.1776325803 -0.031705894736842107 1.4022686086
C 1.454370269 -0.015446736842105261 1.8037164678
C 2.2395684396 0.015446736842105261 0.594313214
C 1.3533011656 0.031705894736842107 -0.4085575786
H 1.4559923521 -0.17937684210526314 -1.4717326154
H 3.3059054286 -0.12861305263157896 0.5060176349
H 1.8076585987 0.12861663157894737 2.8136956948
H -0.751736956 0.17937684210526314 1.9287274445
