9
-0.23157894736842108
O 0.09743164831578947 0.0 0.0631393400263158
C 0.1813586855631579 0.0 1.3994201875473684
C 1.4584877426842104 0.0 1.8162055204315788
C 2.2527290711789476 0.0 0.5929908982105263
C 1.3522104287578947 0.0 -0.40398852596842105
H 1.4621801415736841 0.0 -1.5293841943473685
H 3.161402481231579 0.0 0.5184626875315789
H 1.7605137565947369 0.0 2.677441589536842
H -0.8017904296842105 0.0 1.9577836550263157
