9
-0.31578947368421056
O 0.11232091147368421 0.0 0.07282060318421053
C 0.1776325803 0.0 1.3922170296526315
C 1.4397176374210525 0.0 1.8343164678
C 2.261556860652632 0.0 0.5684784771578948
C 1.3441274813894737 0.0 -0.40449968386315793
H 1.4040481415736843 0.0 -1.4720989311894739
H 3.3180127970210527 0.0 0.3350807927947368
H 1.6563133355421051 0.0 2.8943641158526314
H -0.7731632717894737 0.0 1.8814442866052632
