9
-0.31578947368421056
O 0.10099670094736841 0.0 0.057896392657894744
C 0.16945994872105263 0.0 1.3825159770210527
C 1.437169216368421 0.0 1.8138217309578948
C 2.2373642290736844 0.0 0.6141321613684211
C 1.3746453761263158 0.0 -0.40913547333684214
H 1.2969955099947368 0.0 -1.489675773294737
H 3.2930243759684212 0.0 0.3911050033210526
H 1.9179228092263159 0.0 2.7787156948
H -0.6706737981052632 0.0 2.0666200760789475
