9
-0.23157894736842108
O 0.10007627989473684 0.0 0.05931365581578948
C 0.17163931714210529 0.0 1.3877833454421054
C 1.4417561637368421 0.0 1.8111269941157895
C 2.2379520185473685 0.0 0.6088471087368421
C 1.3689535866526317 0.0 -0.40898136807368424
H 1.3393946678894737 0.0 -1.4848909311894738
H 3.296459323336842 0.0 0.4217483717421052
H 1.8885190197526316 0.0 2.7880436948
H -0.6922906402105263 0.0 2.029848707657895
