9
-0.1473684210526316
O 0.101773122 0.0 0.05665176107894737
C 0.19223973819473686 0.0 1.4000389243894737
C 1.460782269 0.0 1.8265998362210525
C 2.2160690711789477 0.0 0.5977881613684211
C 1.349384112968421 0.0 -0.4227742101789474
H 1.4687294047315789 0.0 -1.4848321943473686
H 3.2811946917578947 0.0 0.5013666875315789
H 1.8219282829105263 0.0 2.834399484273684
H -0.7448961138947369 0.0 1.911793339236842
