9
-0.35789473684210527
O 0.12822027989473683 0.0 0.015986918973684212
C 0.1832264750368421 0.0 1.4418446086
C 1.4533037426842106 0.0 1.7990996256947367
C 2.2441781238105265 0.0 0.5933934245263158
C 1.3148883234947368 0.0 -0.3975523154421053
H 1.3474679310473685 0.0 -1.4685724048736843
H 3.3165993233368423 0.0 0.590498687531579
H 1.726008493436842 0.0 2.838304536905263
H -0.7103392717894736 0.0 2.029331655026316
