9
-0.021052631578947323
O 0.09753480621052632 0.0 0.06320460318421053
C 0.17797131714210526 0.0 1.4020096612315789
C 1.4547445847894738 0.0 1.8048518362210526
C 2.240764860652632 0.0 0.5941930034736842
C 1.353202007705263 0.0 -0.4081422101789474
H 1.4565548784157896 0.0 -1.476973668031579
H 3.292768797021053 0.0 0.5071490033210526
H 1.803372703963158 0.0 2.8013089579578945
H -0.7562872717894736 0.0 1.9313689181842104
